Circuit: * C:\Users\lgnar\OneDrive\Thesis\Algorithms\Largest Lyapunov Exponent\Jerk2\main\jerk 2.asc

WARNING: Node N017 is floating.

Direct Newton iteration failed to find .op point.  (Use ".option noopiter" to skip.)
Starting Gmin stepping
Gmin = 10
Gmin = 1.07374
Gmin = 0.115292
Gmin = 0.0123794
Gmin = 0.00132923
Gmin = 0.000142725
Gmin = 1.5325e-005
Gmin = 1.6455e-006
Gmin = 1.76685e-007
Gmin = 1.89714e-008
Gmin = 2.03704e-009
Gmin = 2.18725e-010
Gmin = 2.34854e-011
Gmin = 2.52173e-012
Gmin = 2.70769e-013
Gmin = 0
Gmin stepping succeeded in finding the operating point.


Date: Wed Mar 13 22:52:24 2024
Total elapsed time: 28.812 seconds.

tnom = 27
temp = 27
method = modified trap
totiter = 122832
traniter = 122404
tranpoints = 60609
accept = 60312
rejected = 297
matrix size = 146
fillins = 99
solver = Normal
Thread vector: 142.1/96.6[7] 40.5/50.6[1] 42.2/40.0[1] 1.8/21.6[1]  2592/500
Matrix Compiler1: 14.82 KB object code size  18.3/5.8/[3.9]
Matrix Compiler2: 16.76 KB object code size  8.0/9.0/[3.0]

