LTspice 24.0.11 for Windows
Circuit: * D:\Bkp SSD\Ignar\OneDrive\Thesis\Algorithms\Divergence in Circuits\chua_divergence.asc
Start Time: Wed May 29 17:54:25 2024
solver = Normal
Maximum thread count: 8
tnom = 27
temp = 27
method = modified trap
Direct Newton iteration for .op point succeeded.
Total elapsed time: 32.650 seconds.

