Circuit: * C:\Users\lgnar\OneDrive\Thesis\Algorithms\Largest Lyapunov Exponent\Rossler\main\rossler.asc

Direct Newton iteration failed to find .op point.  (Use ".option noopiter" to skip.)
Starting Gmin stepping
Gmin = 10
Gmin = 1.07374
Gmin = 0.115292
Gmin = 0.0123794
Gmin = 0.00132923
Gmin = 0.000142725
Gmin = 1.5325e-005
Gmin = 1.6455e-006
Gmin = 1.76685e-007
Gmin = 1.89714e-008
Gmin = 2.03704e-009
Gmin = 2.18725e-010
Gmin = 2.34854e-011
Gmin = 2.52173e-012
Gmin = 2.70769e-013
Gmin = 0
Gmin stepping succeeded in finding the operating point.


Date: Wed Mar 13 23:20:51 2024
Total elapsed time: 13.152 seconds.

tnom = 27
temp = 27
method = modified trap
totiter = 25782
traniter = 25420
tranpoints = 11571
accept = 10858
rejected = 713
matrix size = 166
fillins = 112
solver = Normal
Thread vector: 185.3/103.8[8] 46.1/61.7[1] 139.9/30.8[6] 2.2/42.0[1]  2592/500
Matrix Compiler1: 16.70 KB object code size  14.7/6.5/[2.6]
Matrix Compiler2: 19.45 KB object code size  9.4/10.4/[4.7]

