Circuit: * C:\Users\lgnar\OneDrive\Thesis\Algorithms\Largest Lyapunov Exponent\Chua\main\chua.asc

Direct Newton iteration failed to find .op point.  (Use ".option noopiter" to skip.)
Starting Gmin stepping
Gmin = 10
Gmin = 1.07374
Gmin = 0.115292
Gmin = 0.0123794
Gmin = 0.00132923
Gmin = 0.000142725
Gmin = 1.5325e-005
Gmin = 1.6455e-006
Gmin = 1.76685e-007
Gmin = 1.89714e-008
Gmin = 2.03704e-009
Gmin = 2.18725e-010
Gmin = 2.34854e-011
Gmin = 2.52173e-012
Gmin = 2.70769e-013
Gmin = 0
Gmin stepping succeeded in finding the operating point.


Date: Wed Mar 13 22:25:24 2024
Total elapsed time: 168.589 seconds.

tnom = 27
temp = 27
method = modified trap
totiter = 1001717
traniter = 1001346
tranpoints = 500194
accept = 500069
rejected = 125
matrix size = 92
fillins = 41
solver = Normal
Thread vector: 109.5/55.2[7] 25.0/33.8[1] 20.1/26.3[1] 1.3/15.0[1]  2592/500
Matrix Compiler1: 8.88 KB object code size  7.5/4.0/[1.4]
Matrix Compiler2: 10.63 KB object code size  5.6/6.7/[1.8]

