Circuit: * C:\Users\lgnar\OneDrive\Thesis\Algorithms\Largest Lyapunov Exponent\Hyperchaotic\main\hyperchaotic.asc

Direct Newton iteration failed to find .op point.  (Use ".option noopiter" to skip.)
Starting Gmin stepping
Gmin = 10
Gmin = 1.07374
Gmin = 0.115292
Gmin = 0.0123794
Gmin = 0.00132923
Gmin = 0.000142725
Gmin = 1.5325e-005
Gmin = 1.6455e-006
Gmin = 1.76685e-007
Gmin = 1.89714e-008
Gmin = 2.03704e-009
Gmin = 2.18725e-010
Gmin = 2.34854e-011
Gmin = 2.52173e-012
Gmin = 2.70769e-013
Gmin = 0
Gmin stepping succeeded in finding the operating point.


Date: Wed Mar 13 23:26:51 2024
Total elapsed time: 23.527 seconds.

tnom = 27
temp = 27
method = modified trap
totiter = 54802
traniter = 54415
tranpoints = 24897
accept = 23943
rejected = 954
matrix size = 230
fillins = 192
solver = Normal
Thread vector: 278.2/140.9[8] 71.5/45.2[8] 39.2/39.4[1] 3.8/39.6[1]  2592/500
Matrix Compiler1: 24.90 KB object code size  19.7/9.2/[3.7]
Matrix Compiler2: 27.61 KB object code size  12.6/19.7/[5.7]

